units metal
dimension 3
atom_style atomic
atom_modify map array
boundary p p p
region mybox block -5 5 -5 5 -5 5
read_data ACE_MD_2body_8deg/coeff_3/starting_configuration.lj
Reading data file ...
  orthogonal box = (-5 -5 -5) to (5 5 5)
  reading atoms ...
  13 atoms
  reading velocities ...
  13 velocities
mass 1 39.948
velocity all create 72.0 1 mom yes rot yes dist gaussian
pair_style pace
ACE version: 2022.6.27
Recursive evaluator is used
pair_coeff * * ACE_MD_2body_8deg/coeff_3/parameters.ace Ar
Loading ACE_MD_2body_8deg/coeff_3/parameters.ace
Total number of basis functions
	Ar: 8 (r=1) 0 (r>1)
Mapping LAMMPS atom type #1(Ar) -> ACE species type #0
compute S all pressure NULL virial
fix vir all ave/time 1 500 500 c_S[1] c_S[2] c_S[3] c_S[6] c_S[5] c_S[4] file ACE_MD_2body_8deg/coeff_3/tmp.virial
compute rdf all rdf 100
fix frdf all ave/time 500 9999 5000000 c_rdf[*] file ACE_MD_2body_8deg/coeff_3/tmp.rdf mode vector
compute pe all pe
fix fpe all ave/time 1 500 500 c_pe file ACE_MD_2body_8deg/coeff_3/tmp.pe
compute msd all msd com yes
fix fmsd all ave/time 1 500 500 c_msd[4] file ACE_MD_2body_8deg/coeff_3/tmp.msd
thermo 500
fix l0 all nve langevin 72.0 72.0 1 1
timestep 0.0025
dump 1 all xyz 500 ACE_MD_2body_8deg/coeff_3/dump.xyz
dump 2 all custom 500 ACE_MD_2body_8deg/coeff_3/dump.positions_and_forces type id x y z fx fy fz
run 5000000
Step          Temp          E_pair         E_mol          TotEng         Press
0   72            -0.20627923     0             -0.094598463    115.57383
Averages over the last 5001 of 10001 rows, steps 2500000 to 5000000:
Temp E_pair E_mol TotEng Press
83.4851 -0.224097 0 -0.0946012 8.50267
Loop time of 129.096 on 1 procs for 5000000 steps with 13 atoms
